
* BC547C SPICE Model - Clean, ngspice-compatible
.MODEL BC547C NPN (
+ IS=1.0E-14 BF=500 NF=1.0 VAF=100
+ IKF=0.3 ISE=1.0E-13 NE=1.5
+ BR=10 NR=1.0 VAR=25
+ IKR=0.1 ISC=1.0E-13 NC=2.0
+ RE=0.5 RC=0.25 RB=10
+ CJE=5.0E-12 VJE=0.65 MJE=0.5
+ CJC=3.0E-12 VJC=0.6 MJC=0.3
+ TF=0.5E-9 TR=10E-9 )
